---- qbsp / ericw-tools 2.0.0-alpha10-87-g97795db8 ----

--- Options Summary ---

Input file: /home/hapax/projects/hapax-council/assets/quake/maps/screwm.map
Output file: /home/hapax/projects/hapax-council/assets/quake/maps/screwm.bsp

INFO: using built-in palette.
WARNING: No wad or _wad key exists in the worldmodel
     8 entities
     5 unique textures
    13 texinfos
    72 unique planes

INFO: world extents calculated to 1064 units
    10 brushes
    60 sides

            0 texture frames added
WARNING: unable to find texture skip
WARNING: unable to find texture ground1_6
WARNING: unable to find texture sky4
WARNING: unable to find texture city4_2
WARNING: unable to find texture metal5_2
Processing hull 0...
     1 SKY brushes
     9 SOLID brushes
    10 brushes total
    60 visible sides
INFO: calculating BSP for 10 brushes with 60 sides
    10 brushes
    60 visible faces
    52 nodes
    52 expensive split nodes
    53 leaves
    17 SOLID leafs
     1 SKY leafs
    35 EMPTY leafs
    53 leafs total
    17 max tree height
    11 avg tree height
    256 tree portals
    14 outside leaves
    0 detail filled leafs
    10 brushes
    30 visible faces
    30 non-visible faces
    64 nodes
    26 non-visible nodes
    64 expensive split nodes
    65 leaves
    17 SOLID leafs
     1 SKY leafs
    47 EMPTY leafs
    65 leafs total
    13 max tree height
     8 avg tree height
    300 tree portals
    26 outside leaves
    0 detail filled leafs
    300 tree portals
    146 sides visible
    90 makefaces
    55 merged
    42 subdivided
    25 nodes pruned
    22 player-occupiable leaves
    22 clusters of leaves
    55 vis portals
    21 EMPTY leafs
     1 SKY leafs
    18 SOLID leafs
    40 leafs total
    13 max tree height
     8 avg tree height
     26 edges added by tjunctions
     76 faces optimized through MWT
    178 triangles computed from MWT
      6 faces created via optimization of MWT triangles
    171 edges
     82 faces
Processing hull 1...
Processing hull 2...
Writing /home/hapax/projects/hapax-council/assets/quake/maps/screwm.bsp as Quake BSP bsp29
Wrote /home/hapax/projects/hapax-council/assets/quake/maps/screwm.bsp

count   lump name    byte size 
      1 models               64
     82 planes             1640
     99 vertexes           1188
     39 nodes               936
      7 texinfos            280
     82 faces              1640
     76 clipnodes           608
     23 leafs               644
    218 marksurfaces        436
    172 edges               688
    342 surfedges          1368
      5 textures             24
        lightdata             0
        visdata               0
        entdata             653

0.008s seconds elapsed


