---- qbsp / ericw-tools 2.0.0-alpha10-87-g97795db8 ----

--- Options Summary ---

Input file: /home/hapax/projects/hapax-council/assets/quake/maps/screwm-rnd.map
Output file: /home/hapax/projects/hapax-council/assets/quake/maps/screwm-rnd.bsp

INFO: using built-in palette.
     32 entities
      5 unique textures
     13 texinfos
    138 unique planes

INFO: world extents calculated to 1064 units
     39 brushes
    234 sides

            0 texture frames added
WARNING: unable to find texture skip
Processing hull 0...
     1 SKY brushes
    38 SOLID brushes
    39 brushes total
    234 visible sides
INFO: calculating BSP for 39 brushes with 234 sides
     39 brushes
    234 visible faces
    204 nodes
    204 expensive split nodes
    205 leaves
     80 SOLID leafs
      8 SOLID | SKY leafs
      6 SKY leafs
    111 EMPTY leafs
    205 leafs total
    23 max tree height
    14 avg tree height
    1,043 tree portals
    24 outside leaves
    0 detail filled leafs
     39 brushes
    115 visible faces
    119 non-visible faces
    210 nodes
     43 non-visible nodes
    210 expensive split nodes
    211 leaves
     80 SOLID leafs
      8 SOLID | SKY leafs
      6 SKY leafs
    117 EMPTY leafs
    211 leafs total
    23 max tree height
    14 avg tree height
    1,066 tree portals
    30 outside leaves
    0 detail filled leafs
    1,066 tree portals
    842 sides visible
    466 makefaces
    179 merged
    176 subdivided
    45 nodes pruned
     93 player-occupiable leaves
     93 clusters of leaves
    277 vis portals
     87 EMPTY leafs
      4 SOLID | SKY leafs
      6 SKY leafs
     69 SOLID leafs
    166 leafs total
    23 max tree height
    15 avg tree height
      500 edges added by tjunctions
      430 faces optimized through MWT
    1,360 triangles computed from MWT
      169 faces created via optimization of MWT triangles
    1,279 edges
      599 faces
Processing hull 1...
Processing hull 2...
Writing /home/hapax/projects/hapax-council/assets/quake/maps/screwm-rnd.bsp as Quake BSP bsp29
Wrote /home/hapax/projects/hapax-council/assets/quake/maps/screwm-rnd.bsp

count   lump name    byte size 
      1 models               64
    165 planes             3300
    666 vertexes           7992
    165 nodes              3960
      7 texinfos            280
    599 faces             11980
    779 clipnodes          6232
     94 leafs              2632
    846 marksurfaces       1692
   1280 edges              5120
   2558 surfedges         10232
      5 textures          21944
        lightdata             0
        visdata               0
        entdata            2723

0.035s seconds elapsed


