---- qbsp / ericw-tools 2.0.0-alpha10-87-g97795db8 ----

--- Options Summary ---

Input file: /home/hapax/projects/hapax-council/assets/quake/maps/../../../assets/quake/maps/screwm.map
Output file: /home/hapax/projects/hapax-council/assets/quake/maps/../../../assets/quake/maps/screwm.bsp

INFO: using built-in palette.
addArchive: WARNING: archive '/home/hapax/projects/hapax-council/assets/quake/maps/../../../assets/quake/maps/screwm.wad' not found
addArchive: WARNING: archive 'screwm.wad' not found
WARNING: No valid WAD filenames in worldmodel
      9 entities
      5 unique textures
     13 texinfos
    104 unique planes

INFO: world extents calculated to 1032 units
WARNING: /home/hapax/projects/hapax-council/assets/quake/maps/../../../assets/quake/maps/screwm.map[line 10]: no visible sides on brush
WARNING: /home/hapax/projects/hapax-council/assets/quake/maps/../../../assets/quake/maps/screwm.map[line 10]: no visible sides on brush
WARNING: /home/hapax/projects/hapax-council/assets/quake/maps/../../../assets/quake/maps/screwm.map[line 10]: no visible sides on brush
WARNING: /home/hapax/projects/hapax-council/assets/quake/maps/../../../assets/quake/maps/screwm.map[line 18]: no visible sides on brush
WARNING: /home/hapax/projects/hapax-council/assets/quake/maps/../../../assets/quake/maps/screwm.map[line 18]: no visible sides on brush
WARNING: /home/hapax/projects/hapax-council/assets/quake/maps/../../../assets/quake/maps/screwm.map[line 18]: no visible sides on brush
WARNING: /home/hapax/projects/hapax-council/assets/quake/maps/../../../assets/quake/maps/screwm.map[line 90]: no visible sides on brush
WARNING: /home/hapax/projects/hapax-council/assets/quake/maps/../../../assets/quake/maps/screwm.map[line 90]: no visible sides on brush
WARNING: /home/hapax/projects/hapax-council/assets/quake/maps/../../../assets/quake/maps/screwm.map[line 90]: no visible sides on brush
WARNING: /home/hapax/projects/hapax-council/assets/quake/maps/../../../assets/quake/maps/screwm.map[line 98]: no visible sides on brush
WARNING: /home/hapax/projects/hapax-council/assets/quake/maps/../../../assets/quake/maps/screwm.map[line 98]: no visible sides on brush
WARNING: /home/hapax/projects/hapax-council/assets/quake/maps/../../../assets/quake/maps/screwm.map[line 98]: no visible sides on brush
WARNING: /home/hapax/projects/hapax-council/assets/quake/maps/../../../assets/quake/maps/screwm.map[line 106]: no visible sides on brush
WARNING: /home/hapax/projects/hapax-council/assets/quake/maps/../../../assets/quake/maps/screwm.map[line 106]: no visible sides on brush
WARNING: /home/hapax/projects/hapax-council/assets/quake/maps/../../../assets/quake/maps/screwm.map[line 106]: no visible sides on brush
WARNING: /home/hapax/projects/hapax-council/assets/quake/maps/../../../assets/quake/maps/screwm.map[line 114]: no visible sides on brush
WARNING: /home/hapax/projects/hapax-council/assets/quake/maps/../../../assets/quake/maps/screwm.map[line 114]: no visible sides on brush
WARNING: /home/hapax/projects/hapax-council/assets/quake/maps/../../../assets/quake/maps/screwm.map[line 114]: no visible sides on brush
    14 brushes
    84 sides
    24 side bevels

            0 texture frames added
WARNING: unable to find texture skip
WARNING: unable to find texture ground1_6
WARNING: unable to find texture sky4
WARNING: unable to find texture city4_2
WARNING: unable to find texture metal5_2
Processing hull 0...
WARNING: /home/hapax/projects/hapax-council/assets/quake/maps/../../../assets/quake/maps/screwm.map[line 10]: no visible sides on brush
WARNING: /home/hapax/projects/hapax-council/assets/quake/maps/../../../assets/quake/maps/screwm.map[line 18]: no visible sides on brush
WARNING: /home/hapax/projects/hapax-council/assets/quake/maps/../../../assets/quake/maps/screwm.map[line 90]: no visible sides on brush
WARNING: /home/hapax/projects/hapax-council/assets/quake/maps/../../../assets/quake/maps/screwm.map[line 98]: no visible sides on brush
WARNING: /home/hapax/projects/hapax-council/assets/quake/maps/../../../assets/quake/maps/screwm.map[line 106]: no visible sides on brush
WARNING: /home/hapax/projects/hapax-council/assets/quake/maps/../../../assets/quake/maps/screwm.map[line 114]: no visible sides on brush
    8 SOLID brushes
    8 brushes total
    48 visible sides
INFO: calculating BSP for 8 brushes with 48 sides
     8 brushes
    48 visible faces
    25 nodes
    25 expensive split nodes
    26 leaves
     8 SOLID leafs
    18 EMPTY leafs
    26 leafs total
    8 max tree height
    7 avg tree height
    106 tree portals
WARNING: Reached occupant "light" at (-80 328 -58), no filling performed.
Leak file written to /home/hapax/projects/hapax-council/assets/quake/maps/../../../assets/quake/maps/screwm.pts
            1 portals written to /home/hapax/projects/hapax-council/assets/quake/maps/../../../assets/quake/maps/screwm.leak.prt
    106 tree portals
    64 sides visible
    32 makefaces
    32 subdivided
     8 SOLID leafs
    18 EMPTY leafs
    26 leafs total
    8 max tree height
    7 avg tree height
     32 edges added by tjunctions
     64 faces optimized through MWT
    160 triangles computed from MWT
    144 edges
     64 faces
Processing hull 1...
WARNING: /home/hapax/projects/hapax-council/assets/quake/maps/../../../assets/quake/maps/screwm.map[line 10]: no visible sides on brush
WARNING: /home/hapax/projects/hapax-council/assets/quake/maps/../../../assets/quake/maps/screwm.map[line 18]: no visible sides on brush
WARNING: /home/hapax/projects/hapax-council/assets/quake/maps/../../../assets/quake/maps/screwm.map[line 90]: no visible sides on brush
WARNING: /home/hapax/projects/hapax-council/assets/quake/maps/../../../assets/quake/maps/screwm.map[line 98]: no visible sides on brush
WARNING: /home/hapax/projects/hapax-council/assets/quake/maps/../../../assets/quake/maps/screwm.map[line 106]: no visible sides on brush
WARNING: /home/hapax/projects/hapax-council/assets/quake/maps/../../../assets/quake/maps/screwm.map[line 114]: no visible sides on brush
WARNING: Reached occupant "light" at (-80 208 58), no filling performed.
Processing hull 2...
WARNING: /home/hapax/projects/hapax-council/assets/quake/maps/../../../assets/quake/maps/screwm.map[line 10]: no visible sides on brush
WARNING: /home/hapax/projects/hapax-council/assets/quake/maps/../../../assets/quake/maps/screwm.map[line 18]: no visible sides on brush
WARNING: /home/hapax/projects/hapax-council/assets/quake/maps/../../../assets/quake/maps/screwm.map[line 90]: no visible sides on brush
WARNING: /home/hapax/projects/hapax-council/assets/quake/maps/../../../assets/quake/maps/screwm.map[line 98]: no visible sides on brush
WARNING: /home/hapax/projects/hapax-council/assets/quake/maps/../../../assets/quake/maps/screwm.map[line 106]: no visible sides on brush
WARNING: /home/hapax/projects/hapax-council/assets/quake/maps/../../../assets/quake/maps/screwm.map[line 114]: no visible sides on brush
WARNING: Reached occupant "light" at (30 88 94), no filling performed.
Writing /home/hapax/projects/hapax-council/assets/quake/maps/../../../assets/quake/maps/screwm.bsp as Quake BSP bsp29
Wrote /home/hapax/projects/hapax-council/assets/quake/maps/../../../assets/quake/maps/screwm.bsp

count   lump name    byte size 
      1 models               64
     94 planes             1880
     80 vertexes            960
     25 nodes               600
      3 texinfos            120
     64 faces              1280
    228 clipnodes          1824
     19 leafs               532
     64 marksurfaces        128
    145 edges               580
    288 surfedges          1152
      5 textures             24
        lightdata             0
        visdata               0
        entdata             748

0.004s seconds elapsed


